<?xml version="1.0" encoding="UTF-8"?>

<!-- generated on 2023-12-29 12:10:18 by Eclipse SUMO netedit Version 1.19.0
<configuration xmlns:xsi="http://www.w3.org/2001/XMLSchema-instance" xsi:noNamespaceSchemaLocation="http://sumo.dlr.de/xsd/neteditConfiguration.xsd">

    <input>
        <sumo-net-file value="C:\Users\Rahul\Documents\SUMO_NETWORKS\sample1.net.xml"/>
    </input>

    <output>
        <output-file value="C:\Users\Rahul\Documents\SUMO_NETWORKS\sample1.net.xml"/>
    </output>

    <processing>
        <offset.disable-normalization value="true"/>
    </processing>

    <junctions>
        <no-turnarounds value="true"/>
    </junctions>

    <netedit>
        <new-network value="false"/>
    </netedit>

</configuration>
-->

<net version="1.16" junctionCornerDetail="5" limitTurnSpeed="5.50" xmlns:xsi="http://www.w3.org/2001/XMLSchema-instance" xsi:noNamespaceSchemaLocation="http://sumo.dlr.de/xsd/net_file.xsd">

    <location netOffset="0.00,0.00" convBoundary="-900.00,-300.00,1000.00,200.00" origBoundary="10000000000.00,10000000000.00,-10000000000.00,-10000000000.00" projParameter="!"/>

    <edge id=":J0_0" function="internal">
        <lane id=":J0_0_0" index="0" speed="13.89" length="16.43" shape="-401.60,108.44 -401.60,92.01"/>
    </edge>
    <edge id=":J0_1" function="internal">
        <lane id=":J0_1_0" index="0" speed="10.95" length="3.24" shape="-401.60,108.44 -400.88,105.29"/>
    </edge>
    <edge id=":J0_2" function="internal">
        <lane id=":J0_2_0" index="0" speed="8.71" length="3.06" shape="-401.60,108.44 -400.87,105.47"/>
    </edge>
    <edge id=":J0_12" function="internal">
        <lane id=":J0_12_0" index="0" speed="10.95" length="19.65" shape="-400.88,105.29 -400.57,103.96 -397.49,100.23 -392.35,97.27 -385.16,95.06"/>
    </edge>
    <edge id=":J0_13" function="internal">
        <lane id=":J0_13_0" index="0" speed="8.71" length="18.14" shape="-400.87,105.47 -400.55,104.13 -397.38,101.85 -392.12,101.61 -384.74,103.40"/>
    </edge>
    <edge id=":J0_3" function="internal">
        <lane id=":J0_3_0" index="0" speed="7.39" length="14.90" shape="-385.75,106.44 -391.28,104.98 -395.24,104.83 -397.61,105.98 -398.40,108.44"/>
    </edge>
    <edge id=":J0_4" function="internal">
        <lane id=":J0_4_0" index="0" speed="11.46" length="22.80" shape="-385.75,106.44 -392.68,103.55 -397.64,100.19 -400.61,96.34 -401.60,92.01"/>
    </edge>
    <edge id=":J0_5" function="internal">
        <lane id=":J0_5_0" index="0" speed="6.38" length="15.46" shape="-385.75,106.44 -389.06,104.01 -390.02,100.51 -388.71,97.14 -385.16,95.06"/>
    </edge>
    <edge id=":J0_6" function="internal">
        <lane id=":J0_6_0" index="0" speed="5.51" length="11.05" shape="-384.47,98.19 -388.07,99.31 -389.31,100.55 -388.20,101.92 -384.74,103.40"/>
    </edge>
    <edge id=":J0_7" function="internal">
        <lane id=":J0_7_0" index="0" speed="9.90" length="18.56" shape="-384.47,98.19 -390.56,99.99 -394.92,102.30 -397.53,105.12 -398.40,108.44"/>
    </edge>
    <edge id=":J0_8" function="internal">
        <lane id=":J0_8_0" index="0" speed="8.99" length="21.24" shape="-384.47,98.19 -391.96,99.23 -397.32,98.55 -400.53,96.14 -401.60,92.01"/>
    </edge>
    <edge id=":J0_9" function="internal">
        <lane id=":J0_9_0" index="0" speed="7.73" length="15.39" shape="-398.40,92.01 -397.57,94.45 -395.09,95.77 -390.95,95.98 -385.16,95.06"/>
    </edge>
    <edge id=":J0_10" function="internal">
        <lane id=":J0_10_0" index="0" speed="10.45" length="18.82" shape="-398.40,92.01 -397.55,95.29 -394.98,98.28 -390.72,100.98 -384.74,103.40"/>
    </edge>
    <edge id=":J0_11" function="internal">
        <lane id=":J0_11_0" index="0" speed="13.89" length="16.43" shape="-398.40,92.01 -398.40,108.44"/>
    </edge>
    <edge id=":J1_0" function="internal">
        <lane id=":J1_0_0" index="0" speed="13.89" length="17.97" shape="-401.60,-92.01 -401.60,-109.98"/>
    </edge>
    <edge id=":J1_1" function="internal">
        <lane id=":J1_1_0" index="0" speed="12.39" length="4.35" shape="-401.60,-92.01 -400.96,-96.31"/>
    </edge>
    <edge id=":J1_2" function="internal">
        <lane id=":J1_2_0" index="0" speed="8.29" length="3.71" shape="-401.60,-92.01 -400.88,-95.66"/>
    </edge>
    <edge id=":J1_12" function="internal">
        <lane id=":J1_12_0" index="0" speed="12.39" length="15.19" shape="-400.96,-96.31 -399.03,-100.36 -395.82,-104.16 -391.32,-107.71"/>
    </edge>
    <edge id=":J1_13" function="internal">
        <lane id=":J1_13_0" index="0" speed="8.29" length="14.14" shape="-400.88,-95.66 -400.78,-96.20 -398.31,-98.77 -394.19,-99.72 -388.43,-99.07"/>
    </edge>
    <edge id=":J1_3" function="internal">
        <lane id=":J1_3_0" index="0" speed="6.87" length="11.88" shape="-389.12,-95.94 -393.18,-96.47 -396.08,-95.99 -397.82,-94.50 -398.40,-92.01"/>
    </edge>
    <edge id=":J1_4" function="internal">
        <lane id=":J1_4_0" index="0" speed="10.39" length="20.52" shape="-389.12,-95.94 -394.58,-97.86 -398.48,-100.84 -400.82,-104.88 -401.60,-109.98"/>
    </edge>
    <edge id=":J1_5" function="internal">
        <lane id=":J1_5_0" index="0" speed="7.41" length="19.04" shape="-389.12,-95.94 -394.84,-97.92 -397.11,-100.54 -395.94,-103.80 -391.32,-107.71"/>
    </edge>
    <edge id=":J1_6" function="internal">
        <lane id=":J1_6_0" index="0" speed="5.48" length="9.68" shape="-389.54,-105.05 -391.89,-103.06 -392.49,-101.40 -391.33,-100.07 -388.43,-99.07"/>
    </edge>
    <edge id=":J1_7" function="internal">
        <lane id=":J1_7_0" index="0" speed="11.38" length="16.39" shape="-389.54,-105.05 -393.42,-102.02 -396.19,-98.84 -397.85,-95.50 -398.40,-92.01"/>
    </edge>
    <edge id=":J1_8" function="internal">
        <lane id=":J1_8_0" index="0" speed="7.59" length="18.33" shape="-389.54,-105.05 -394.82,-102.34 -398.59,-102.26 -400.85,-104.81 -401.60,-109.98"/>
    </edge>
    <edge id=":J1_9" function="internal">
        <lane id=":J1_9_0" index="0" speed="5.87" length="10.37" shape="-398.40,-109.98 -397.96,-107.22 -396.63,-105.92 -394.42,-106.08 -391.32,-107.71"/>
    </edge>
    <edge id=":J1_10" function="internal">
        <lane id=":J1_10_0" index="0" speed="9.27" length="16.14" shape="-398.40,-109.98 -397.78,-106.04 -395.91,-102.90 -392.79,-100.58 -388.43,-99.07"/>
    </edge>
    <edge id=":J1_11" function="internal">
        <lane id=":J1_11_0" index="0" speed="13.89" length="17.97" shape="-398.40,-109.98 -398.40,-92.01"/>
    </edge>
    <edge id=":J10_0" function="internal">
        <lane id=":J10_0_0" index="0" speed="13.89" length="22.93" shape="-392.80,201.60 -397.71,200.95 -403.99,199.38 -410.19,197.46 -414.90,195.76"/>
    </edge>
    <edge id=":J10_1" function="internal">
        <lane id=":J10_1_0" index="0" speed="13.84" length="5.14" shape="-392.80,201.60 -396.91,200.79 -397.74,200.32"/>
    </edge>
    <edge id=":J10_2" function="internal">
        <lane id=":J10_2_0" index="0" speed="9.32" length="4.13" shape="-392.80,201.60 -396.65,200.65 -396.76,200.53"/>
    </edge>
    <edge id=":J10_12" function="internal">
        <lane id=":J10_12_0" index="0" speed="13.84" length="17.49" shape="-397.74,200.32 -401.23,198.36 -405.77,194.30 -410.53,188.63"/>
    </edge>
    <edge id=":J10_13" function="internal">
        <lane id=":J10_13_0" index="0" speed="9.32" length="15.50" shape="-396.76,200.53 -399.40,197.80 -401.05,193.05 -401.60,186.40"/>
    </edge>
    <edge id=":J10_3" function="internal">
        <lane id=":J10_3_0" index="0" speed="8.10" length="14.57" shape="-398.40,186.40 -398.05,191.65 -397.00,195.40 -395.25,197.65 -392.80,198.40"/>
    </edge>
    <edge id=":J10_4" function="internal">
        <lane id=":J10_4_0" index="0" speed="9.12" length="24.22" shape="-398.40,186.40 -399.43,192.97 -402.53,196.72 -407.68,197.65 -414.90,195.76"/>
    </edge>
    <edge id=":J10_5" function="internal">
        <lane id=":J10_5_0" index="0" speed="6.71" length="16.54" shape="-398.40,186.40 -399.72,190.41 -402.92,192.14 -406.90,191.56 -410.53,188.63"/>
    </edge>
    <edge id=":J10_6" function="internal">
        <lane id=":J10_6_0" index="0" speed="5.71" length="11.45" shape="-407.97,186.71 -405.18,189.87 -403.19,190.88 -402.00,189.72 -401.60,186.40"/>
    </edge>
    <edge id=":J10_7" function="internal">
        <lane id=":J10_7_0" index="0" speed="12.93" length="19.69" shape="-407.97,186.71 -403.73,191.82 -399.79,195.48 -396.15,197.67 -392.80,198.40"/>
    </edge>
    <edge id=":J10_8" function="internal">
        <lane id=":J10_8_0" index="0" speed="6.39" length="15.47" shape="-407.97,186.71 -406.62,190.59 -407.80,194.02 -410.80,196.05 -414.90,195.76"/>
    </edge>
    <edge id=":J10_9" function="internal">
        <lane id=":J10_9_0" index="0" speed="5.51" length="10.99" shape="-413.72,192.79 -410.14,193.88 -408.41,193.55 -408.54,191.80 -410.53,188.63"/>
    </edge>
    <edge id=":J10_10" function="internal">
        <lane id=":J10_10_0" index="0" speed="7.82" length="17.45" shape="-413.72,192.79 -408.41,194.21 -404.63,193.62 -402.36,191.01 -401.60,186.40"/>
    </edge>
    <edge id=":J10_11" function="internal">
        <lane id=":J10_11_0" index="0" speed="13.89" length="21.72" shape="-413.72,192.79 -409.19,194.45 -403.39,196.29 -397.52,197.78 -392.80,198.40"/>
    </edge>
    <edge id=":J11_0" function="internal">
        <lane id=":J11_0_0" index="0" speed="13.89" length="15.37" shape="508.06,200.02 504.31,200.68 500.47,201.18 496.60,201.49 492.80,201.60"/>
    </edge>
    <edge id=":J11_1" function="internal">
        <lane id=":J11_1_0" index="0" speed="7.69" length="4.47" shape="508.06,200.02 503.84,200.25 503.62,200.16"/>
    </edge>
    <edge id=":J11_6" function="internal">
        <lane id=":J11_6_0" index="0" speed="7.69" length="10.53" shape="503.62,200.16 500.82,199.00 499.00,196.29 498.40,192.10"/>
    </edge>
    <edge id=":J11_2" function="internal">
        <lane id=":J11_2_0" index="0" speed="6.12" length="9.06" shape="501.60,192.10 501.96,194.63 503.06,196.27 504.88,197.02 507.44,196.88"/>
    </edge>
    <edge id=":J11_3" function="internal">
        <lane id=":J11_3_0" index="0" speed="8.15" length="14.76" shape="501.60,192.10 501.05,196.25 499.40,199.22 496.65,201.01 492.80,201.60"/>
    </edge>
    <edge id=":J11_4" function="internal">
        <lane id=":J11_4_0" index="0" speed="6.69" length="9.61" shape="492.80,198.40 495.25,198.01 497.00,196.82 498.05,194.85 498.40,192.10"/>
    </edge>
    <edge id=":J11_5" function="internal">
        <lane id=":J11_5_0" index="0" speed="13.89" length="14.74" shape="492.80,198.40 496.51,198.30 500.15,198.01 503.78,197.53 507.44,196.88"/>
    </edge>
    <edge id=":J12_0" function="internal">
        <lane id=":J12_0_0" index="0" speed="6.40" length="9.64" shape="-696.22,-192.29 -698.21,-194.34 -700.22,-195.21 -702.25,-194.91 -704.31,-193.43"/>
    </edge>
    <edge id=":J12_1" function="internal">
        <lane id=":J12_1_0" index="0" speed="7.55" length="15.59" shape="-696.22,-192.29 -698.38,-196.23 -698.48,-199.53 -696.52,-202.18 -692.50,-204.19"/>
    </edge>
    <edge id=":J12_2" function="internal">
        <lane id=":J12_2_0" index="0" speed="5.92" length="9.10" shape="-691.49,-201.15 -693.84,-199.98 -694.98,-198.43 -694.92,-196.51 -693.66,-194.21"/>
    </edge>
    <edge id=":J12_3" function="internal">
        <lane id=":J12_3_0" index="0" speed="13.89" length="15.09" shape="-691.49,-201.15 -694.99,-199.77 -698.35,-198.02 -701.48,-195.91 -704.31,-193.43"/>
    </edge>
    <edge id=":J12_4" function="internal">
        <lane id=":J12_4_0" index="0" speed="13.89" length="16.55" shape="-706.57,-195.69 -703.55,-198.29 -699.99,-200.67 -696.20,-202.69 -692.50,-204.19"/>
    </edge>
    <edge id=":J12_5" function="internal">
        <lane id=":J12_5_0" index="0" speed="7.91" length="4.69" shape="-706.57,-195.69 -703.23,-198.13 -702.68,-198.22"/>
    </edge>
    <edge id=":J12_6" function="internal">
        <lane id=":J12_6_0" index="0" speed="7.91" length="10.66" shape="-702.68,-198.22 -699.97,-198.69 -696.78,-197.39 -693.66,-194.21"/>
    </edge>
    <edge id=":J13_0" function="internal">
        <lane id=":J13_0_0" index="0" speed="6.36" length="13.18" shape="995.64,94.46 998.52,97.40 999.14,99.79 997.50,101.63 993.58,102.92"/>
    </edge>
    <edge id=":J13_1" function="internal">
        <lane id=":J13_1_0" index="0" speed="4.05" length="4.39" shape="992.95,99.78 994.26,99.35 994.81,98.74 994.60,97.94 993.64,96.96"/>
    </edge>
    <edge id=":J14_0" function="internal">
        <lane id=":J14_0_0" index="0" speed="6.13" length="10.35" shape="-896.09,3.29 -898.72,1.78 -899.87,-0.03 -899.53,-2.14 -897.70,-4.56"/>
    </edge>
    <edge id=":J14_1" function="internal">
        <lane id=":J14_1_0" index="0" speed="3.93" length="3.45" shape="-895.44,-2.30 -896.05,-1.49 -896.16,-0.79 -895.78,-0.18 -894.90,0.32"/>
    </edge>
    <edge id=":J2_0" function="internal">
        <lane id=":J2_0_0" index="0" speed="13.89" length="18.18" shape="-95.03,-298.40 -99.09,-297.57 -103.45,-295.53 -107.65,-292.98 -111.23,-290.59"/>
    </edge>
    <edge id=":J2_1" function="internal">
        <lane id=":J2_1_0" index="0" speed="13.89" length="19.54" shape="-95.03,-298.40 -114.57,-298.40"/>
    </edge>
    <edge id=":J2_2" function="internal">
        <lane id=":J2_2_0" index="0" speed="13.89" length="19.54" shape="-114.57,-301.60 -95.03,-301.60"/>
    </edge>
    <edge id=":J2_3" function="internal">
        <lane id=":J2_3_0" index="0" speed="7.69" length="7.52" shape="-114.57,-301.60 -107.08,-300.93"/>
    </edge>
    <edge id=":J2_6" function="internal">
        <lane id=":J2_6_0" index="0" speed="7.69" length="15.31" shape="-107.08,-300.93 -106.92,-300.91 -103.81,-298.85 -105.25,-295.41 -111.23,-290.59"/>
    </edge>
    <edge id=":J2_4" function="internal">
        <lane id=":J2_4_0" index="0" speed="5.48" length="10.68" shape="-113.01,-293.25 -110.21,-295.50 -109.54,-297.11 -110.99,-298.08 -114.57,-298.40"/>
    </edge>
    <edge id=":J2_5" function="internal">
        <lane id=":J2_5_0" index="0" speed="13.89" length="20.00" shape="-113.01,-293.25 -109.15,-295.72 -104.34,-298.47 -99.36,-300.69 -95.03,-301.60"/>
    </edge>
    <edge id=":J3_0" function="internal">
        <lane id=":J3_0_0" index="0" speed="12.73" length="15.02" shape="307.16,-290.58 303.45,-294.00 300.13,-296.44 297.20,-297.91 294.67,-298.40"/>
    </edge>
    <edge id=":J3_1" function="internal">
        <lane id=":J3_1_0" index="0" speed="7.42" length="19.31" shape="307.16,-290.58 303.31,-295.40 302.79,-298.84 305.59,-300.91 311.73,-301.60"/>
    </edge>
    <edge id=":J3_2" function="internal">
        <lane id=":J3_2_0" index="0" speed="5.47" length="9.74" shape="311.73,-298.40 308.63,-298.05 307.22,-297.01 307.48,-295.27 309.42,-292.84"/>
    </edge>
    <edge id=":J3_3" function="internal">
        <lane id=":J3_3_0" index="0" speed="13.89" length="17.05" shape="311.73,-298.40 294.67,-298.40"/>
    </edge>
    <edge id=":J3_4" function="internal">
        <lane id=":J3_4_0" index="0" speed="13.89" length="17.05" shape="294.67,-301.60 311.73,-301.60"/>
    </edge>
    <edge id=":J3_5" function="internal">
        <lane id=":J3_5_0" index="0" speed="13.73" length="3.53" shape="294.67,-301.60 297.84,-301.05 298.13,-300.92"/>
    </edge>
    <edge id=":J3_6" function="internal">
        <lane id=":J3_6_0" index="0" speed="13.73" length="13.98" shape="298.13,-300.92 301.36,-299.41 305.22,-296.67 309.42,-292.84"/>
    </edge>
    <edge id=":J4_0" function="internal">
        <lane id=":J4_0_0" index="0" speed="6.50" length="10.51" shape="498.40,-92.01 497.92,-94.53 496.49,-96.08 494.10,-96.67 490.75,-96.31"/>
    </edge>
    <edge id=":J4_1" function="internal">
        <lane id=":J4_1_0" index="0" speed="13.71" length="17.47" shape="498.40,-92.01 497.91,-95.71 496.44,-99.46 494.00,-103.28 490.58,-107.16"/>
    </edge>
    <edge id=":J4_2" function="internal">
        <lane id=":J4_2_0" index="0" speed="13.89" length="19.71" shape="498.40,-92.01 498.40,-111.73"/>
    </edge>
    <edge id=":J4_3" function="internal">
        <lane id=":J4_3_0" index="0" speed="13.89" length="19.71" shape="501.60,-111.73 501.60,-92.01"/>
    </edge>
    <edge id=":J4_4" function="internal">
        <lane id=":J4_4_0" index="0" speed="10.41" length="5.88" shape="501.60,-111.73 500.92,-105.88"/>
    </edge>
    <edge id=":J4_5" function="internal">
        <lane id=":J4_5_0" index="0" speed="7.42" length="6.00" shape="501.60,-111.73 500.93,-105.76"/>
    </edge>
    <edge id=":J4_12" function="internal">
        <lane id=":J4_12_0" index="0" speed="10.41" length="14.71" shape="500.92,-105.88 498.89,-101.37 495.50,-98.17 490.75,-96.31"/>
    </edge>
    <edge id=":J4_13" function="internal">
        <lane id=":J4_13_0" index="0" speed="7.42" length="13.30" shape="500.93,-105.76 500.91,-105.59 498.84,-102.79 495.40,-103.31 490.58,-107.16"/>
    </edge>
    <edge id=":J4_6" function="internal">
        <lane id=":J4_6_0" index="0" speed="5.47" length="9.74" shape="492.84,-109.42 495.27,-107.48 497.01,-107.22 498.05,-108.63 498.40,-111.73"/>
    </edge>
    <edge id=":J4_7" function="internal">
        <lane id=":J4_7_0" index="0" speed="13.89" length="19.98" shape="492.84,-109.42 496.67,-105.05 499.41,-100.69 501.05,-96.34 501.60,-92.01"/>
    </edge>
    <edge id=":J4_8" function="internal">
        <lane id=":J4_8_0" index="0" speed="7.65" length="18.43" shape="492.84,-109.42 496.59,-104.72 497.49,-100.97 495.55,-98.16 490.75,-96.31"/>
    </edge>
    <edge id=":J4_9" function="internal">
        <lane id=":J4_9_0" index="0" speed="5.96" length="10.63" shape="490.06,-99.43 492.62,-100.48 493.56,-102.11 492.88,-104.34 490.58,-107.16"/>
    </edge>
    <edge id=":J4_10" function="internal">
        <lane id=":J4_10_0" index="0" speed="9.28" length="16.22" shape="490.06,-99.43 493.71,-100.89 496.31,-103.43 497.88,-107.04 498.40,-111.73"/>
    </edge>
    <edge id=":J4_11" function="internal">
        <lane id=":J4_11_0" index="0" speed="7.99" length="16.52" shape="490.06,-99.43 495.11,-99.93 498.71,-98.86 500.88,-96.22 501.60,-92.01"/>
    </edge>
    <edge id=":J5_0" function="internal">
        <lane id=":J5_0_0" index="0" speed="6.47" length="12.08" shape="498.40,109.18 497.82,106.59 496.07,105.40 493.16,105.62 489.08,107.25"/>
    </edge>
    <edge id=":J5_1" function="internal">
        <lane id=":J5_1_0" index="0" speed="9.45" length="16.83" shape="498.40,109.18 497.68,105.56 495.54,102.62 491.96,100.35 486.95,98.74"/>
    </edge>
    <edge id=":J5_2" function="internal">
        <lane id=":J5_2_0" index="0" speed="13.89" length="17.17" shape="498.40,109.18 498.40,92.01"/>
    </edge>
    <edge id=":J5_3" function="internal">
        <lane id=":J5_3_0" index="0" speed="13.89" length="17.17" shape="501.60,92.01 501.60,109.18"/>
    </edge>
    <edge id=":J5_4" function="internal">
        <lane id=":J5_4_0" index="0" speed="11.81" length="4.01" shape="501.60,92.01 500.89,95.95"/>
    </edge>
    <edge id=":J5_5" function="internal">
        <lane id=":J5_5_0" index="0" speed="8.55" length="3.36" shape="501.60,92.01 500.88,95.29"/>
    </edge>
    <edge id=":J5_12" function="internal">
        <lane id=":J5_12_0" index="0" speed="11.81" length="16.75" shape="500.89,95.95 500.82,96.33 498.47,100.31 494.56,103.95 489.08,107.25"/>
    </edge>
    <edge id=":J5_13" function="internal">
        <lane id=":J5_13_0" index="0" speed="8.55" length="15.74" shape="500.88,95.29 500.68,96.18 497.94,98.68 493.36,99.54 486.95,98.74"/>
    </edge>
    <edge id=":J5_6" function="internal">
        <lane id=":J5_6_0" index="0" speed="7.20" length="13.17" shape="487.64,95.62 492.35,96.29 495.71,95.91 497.73,94.48 498.40,92.01"/>
    </edge>
    <edge id=":J5_7" function="internal">
        <lane id=":J5_7_0" index="0" speed="10.55" length="21.19" shape="487.64,95.62 493.75,97.63 498.11,100.56 500.73,104.41 501.60,109.18"/>
    </edge>
    <edge id=":J5_8" function="internal">
        <lane id=":J5_8_0" index="0" speed="7.53" length="20.87" shape="487.64,95.62 494.15,97.77 496.55,100.42 494.86,103.59 489.08,107.25"/>
    </edge>
    <edge id=":J5_9" function="internal">
        <lane id=":J5_9_0" index="0" speed="5.46" length="10.13" shape="487.65,104.39 490.45,102.61 491.28,101.07 490.11,99.78 486.95,98.74"/>
    </edge>
    <edge id=":J5_10" function="internal">
        <lane id=":J5_10_0" index="0" speed="10.79" length="17.21" shape="487.65,104.39 492.35,101.60 495.71,98.61 497.73,95.41 498.40,92.01"/>
    </edge>
    <edge id=":J5_11" function="internal">
        <lane id=":J5_11_0" index="0" speed="8.00" length="19.21" shape="487.65,104.39 493.75,102.07 498.11,102.10 500.73,104.47 501.60,109.18"/>
    </edge>
    <edge id=":J6_0" function="internal">
        <lane id=":J6_0_0" index="0" speed="13.89" length="22.31" shape="317.56,201.60 295.24,201.60"/>
    </edge>
    <edge id=":J6_1" function="internal">
        <lane id=":J6_1_0" index="0" speed="6.26" length="2.30" shape="317.56,201.60 315.38,200.85"/>
    </edge>
    <edge id=":J6_6" function="internal">
        <lane id=":J6_6_0" index="0" speed="6.26" length="12.99" shape="315.38,200.85 313.75,200.29 311.86,197.20 312.17,193.59 314.99,190.72"/>
    </edge>
    <edge id=":J6_2" function="internal">
        <lane id=":J6_2_0" index="0" speed="5.60" length="11.85" shape="316.42,193.58 312.87,195.69 311.88,197.20 313.44,198.10 317.56,198.40"/>
    </edge>
    <edge id=":J6_3" function="internal">
        <lane id=":J6_3_0" index="0" speed="13.89" length="22.74" shape="316.42,193.58 311.93,195.78 306.03,198.43 300.03,200.66 295.24,201.60"/>
    </edge>
    <edge id=":J6_4" function="internal">
        <lane id=":J6_4_0" index="0" speed="13.89" length="21.29" shape="295.24,198.40 299.81,197.51 305.31,195.40 310.72,192.86 314.99,190.72"/>
    </edge>
    <edge id=":J6_5" function="internal">
        <lane id=":J6_5_0" index="0" speed="13.89" length="22.31" shape="295.24,198.40 317.56,198.40"/>
    </edge>
    <edge id=":J7_0" function="internal">
        <lane id=":J7_0_0" index="0" speed="13.89" length="28.24" shape="-95.48,201.60 -123.72,201.60"/>
    </edge>
    <edge id=":J7_1" function="internal">
        <lane id=":J7_1_0" index="0" speed="13.89" length="4.31" shape="-95.48,201.60 -99.73,200.89"/>
    </edge>
    <edge id=":J7_6" function="internal">
        <lane id=":J7_6_0" index="0" speed="13.89" length="24.29" shape="-99.73,200.89 -101.22,200.64 -109.34,198.40 -117.41,195.87 -123.01,194.02"/>
    </edge>
    <edge id=":J7_2" function="internal">
        <lane id=":J7_2_0" index="0" speed="13.89" length="27.58" shape="-122.00,190.98 -116.56,192.81 -108.83,195.28 -101.07,197.46 -95.48,198.40"/>
    </edge>
    <edge id=":J7_3" function="internal">
        <lane id=":J7_3_0" index="0" speed="6.04" length="14.90" shape="-122.00,190.98 -119.03,193.44 -118.49,197.00 -120.13,200.21 -123.72,201.60"/>
    </edge>
    <edge id=":J7_4" function="internal">
        <lane id=":J7_4_0" index="0" speed="5.98" length="14.58" shape="-123.72,198.40 -118.48,198.13 -116.61,197.30 -118.12,195.93 -123.01,194.02"/>
    </edge>
    <edge id=":J7_5" function="internal">
        <lane id=":J7_5_0" index="0" speed="13.89" length="28.24" shape="-123.72,198.40 -95.48,198.40"/>
    </edge>
    <edge id=":J8_0" function="internal">
        <lane id=":J8_0_0" index="0" speed="7.39" length="11.95" shape="498.40,-289.34 498.05,-293.30 497.00,-296.14 495.25,-297.83 492.80,-298.40"/>
    </edge>
    <edge id=":J8_1" function="internal">
        <lane id=":J8_1_0" index="0" speed="7.38" length="18.06" shape="498.40,-289.34 499.08,-294.92 501.13,-297.65 504.54,-297.54 509.32,-294.59"/>
    </edge>
    <edge id=":J8_2" function="internal">
        <lane id=":J8_2_0" index="0" speed="5.54" length="9.46" shape="507.32,-292.09 504.82,-293.64 503.03,-293.69 501.96,-292.26 501.60,-289.34"/>
    </edge>
    <edge id=":J8_3" function="internal">
        <lane id=":J8_3_0" index="0" speed="13.89" length="16.09" shape="507.32,-292.09 504.11,-294.40 500.47,-296.42 496.63,-297.85 492.80,-298.40"/>
    </edge>
    <edge id=":J8_4" function="internal">
        <lane id=":J8_4_0" index="0" speed="13.89" length="18.18" shape="492.80,-301.60 496.94,-300.94 501.47,-299.27 505.80,-297.00 509.32,-294.59"/>
    </edge>
    <edge id=":J8_5" function="internal">
        <lane id=":J8_5_0" index="0" speed="8.73" length="4.58" shape="492.80,-301.60 496.65,-300.83 497.15,-300.41"/>
    </edge>
    <edge id=":J8_6" function="internal">
        <lane id=":J8_6_0" index="0" speed="8.73" length="12.49" shape="497.15,-300.41 499.40,-298.54 501.05,-294.70 501.60,-289.34"/>
    </edge>
    <edge id=":J9_0" function="internal">
        <lane id=":J9_0_0" index="0" speed="5.92" length="9.10" shape="-401.60,-291.56 -401.97,-294.16 -403.08,-295.73 -404.92,-296.28 -407.50,-295.81"/>
    </edge>
    <edge id=":J9_1" function="internal">
        <lane id=":J9_1_0" index="0" speed="8.26" length="15.20" shape="-401.60,-291.56 -401.05,-295.95 -399.40,-299.09 -396.65,-300.97 -392.80,-301.60"/>
    </edge>
    <edge id=":J9_2" function="internal">
        <lane id=":J9_2_0" index="0" speed="6.83" length="10.05" shape="-392.80,-298.40 -395.25,-297.97 -397.00,-296.69 -398.05,-294.55 -398.40,-291.56"/>
    </edge>
    <edge id=":J9_3" function="internal">
        <lane id=":J9_3_0" index="0" speed="13.89" length="14.99" shape="-392.80,-298.40 -396.54,-298.22 -400.25,-297.70 -403.91,-296.88 -407.50,-295.81"/>
    </edge>
    <edge id=":J9_4" function="internal">
        <lane id=":J9_4_0" index="0" speed="13.89" length="16.01" shape="-408.51,-298.85 -404.76,-299.95 -400.75,-300.82 -396.70,-301.39 -392.80,-301.60"/>
    </edge>
    <edge id=":J9_5" function="internal">
        <lane id=":J9_5_0" index="0" speed="7.55" length="4.80" shape="-408.51,-298.85 -404.09,-299.66 -403.79,-299.57"/>
    </edge>
    <edge id=":J9_6" function="internal">
        <lane id=":J9_6_0" index="0" speed="7.55" length="10.79" shape="-403.79,-299.57 -400.93,-298.71 -399.03,-296.01 -398.40,-291.56"/>
    </edge>

    <edge id="-E0" from="J1" to="J0" priority="-1">
        <lane id="-E0_0" index="0" speed="13.89" length="184.02" shape="-398.40,-92.01 -398.40,92.01"/>
    </edge>
    <edge id="-E1" from="J2" to="J1" priority="-1">
        <lane id="-E1_0" index="0" speed="13.89" length="334.49" shape="-111.23,-290.59 -389.54,-105.05"/>
    </edge>
    <edge id="-E10" from="J8" to="J3" priority="-1">
        <lane id="-E10_0" index="0" speed="13.89" length="181.07" shape="492.80,-298.40 311.73,-298.40"/>
    </edge>
    <edge id="-E11" from="J4" to="J8" priority="-1">
        <lane id="-E11_0" index="0" speed="13.89" length="177.62" shape="498.40,-111.73 498.40,-289.34"/>
    </edge>
    <edge id="-E12" from="J9" to="J1" priority="-1">
        <lane id="-E12_0" index="0" speed="13.89" length="181.58" shape="-398.40,-291.56 -398.40,-109.98"/>
    </edge>
    <edge id="-E13" from="J2" to="J9" priority="-1">
        <lane id="-E13_0" index="0" speed="13.89" length="278.23" shape="-114.57,-298.40 -392.80,-298.40"/>
    </edge>
    <edge id="-E14" from="J10" to="J0" priority="-1">
        <lane id="-E14_0" index="0" speed="13.89" length="77.96" shape="-401.60,186.40 -401.60,108.44"/>
    </edge>
    <edge id="-E15" from="J7" to="J10" priority="-1">
        <lane id="-E15_0" index="0" speed="13.89" length="269.08" shape="-123.72,201.60 -392.80,201.60"/>
    </edge>
    <edge id="-E16" from="J11" to="J6" priority="-1">
        <lane id="-E16_0" index="0" speed="13.89" length="175.24" shape="492.80,201.60 317.56,201.60"/>
    </edge>
    <edge id="-E17" from="J5" to="J11" priority="-1">
        <lane id="-E17_0" index="0" speed="13.89" length="82.92" shape="501.60,109.18 501.60,192.10"/>
    </edge>
    <edge id="-E18" from="J12" to="J10" priority="-1">
        <lane id="-E18_0" index="0" speed="13.89" length="476.15" shape="-693.66,-194.21 -407.97,186.71"/>
    </edge>
    <edge id="-E19" from="J9" to="J12" priority="-1">
        <lane id="-E19_0" index="0" speed="13.89" length="299.35" shape="-407.50,-295.81 -691.49,-201.15"/>
    </edge>
    <edge id="-E2" from="J3" to="J2" priority="-1">
        <lane id="-E2_0" index="0" speed="13.89" length="389.71" shape="294.67,-298.40 -95.03,-298.40"/>
    </edge>
    <edge id="-E20" from="J13" to="J8" priority="-1">
        <lane id="-E20_0" index="0" speed="13.89" length="622.79" shape="993.64,96.96 507.32,-292.09"/>
    </edge>
    <edge id="-E21" from="J11" to="J13" priority="-1">
        <lane id="-E21_0" index="0" speed="13.89" length="495.13" shape="507.44,196.88 992.95,99.78"/>
    </edge>
    <edge id="-E22" from="J14" to="J12" priority="-1">
        <lane id="-E22_0" index="0" speed="13.89" length="270.30" shape="-897.70,-4.56 -706.57,-195.69"/>
    </edge>
    <edge id="-E23" from="J10" to="J14" priority="-1">
        <lane id="-E23_0" index="0" speed="13.89" length="518.25" shape="-414.90,195.76 -896.09,3.29"/>
    </edge>
    <edge id="-E3" from="J4" to="J3" priority="-1">
        <lane id="-E3_0" index="0" speed="13.89" length="259.39" shape="490.58,-107.16 307.16,-290.58"/>
    </edge>
    <edge id="-E4" from="J5" to="J4" priority="-1">
        <lane id="-E4_0" index="0" speed="13.89" length="184.02" shape="498.40,92.01 498.40,-92.01"/>
    </edge>
    <edge id="-E5" from="J6" to="J5" priority="-1">
        <lane id="-E5_0" index="0" speed="13.89" length="193.04" shape="314.99,190.72 487.65,104.39"/>
    </edge>
    <edge id="-E6" from="J7" to="J6" priority="-1">
        <lane id="-E6_0" index="0" speed="13.89" length="390.73" shape="-95.48,198.40 295.24,198.40"/>
    </edge>
    <edge id="-E7" from="J0" to="J7" priority="-1">
        <lane id="-E7_0" index="0" speed="13.89" length="276.96" shape="-384.74,103.40 -122.00,190.98"/>
    </edge>
    <edge id="-E8" from="J4" to="J0" priority="-1">
        <lane id="-E8_0" index="0" speed="13.89" length="896.57" shape="490.75,-96.31 -384.47,98.19"/>